output/2_TAP2_1/Cargas_MT_DO09_2_TAP2_1.dss
New "Load.MT_8444_M1" bus1="84441.1.2.3.4" phases=3 conn=delta model=2 kv=13.8 kw = 266.4937581144549 pf=0.92 status=variable vmaxpu=1.5 vminpu=0.93 daily="1_DO" 
New "Load.MT_8444_M2" bus1="84441.1.2.3.4" phases=3 conn=delta model=3 kv=13.8 kw = 266.4937581144549 pf=0.92 status=variable vmaxpu=1.5 vminpu=0.93 daily="1_DO"
 
New "Load.MT_8266_M1" bus1="82661.1.2.3.4" phases=3 conn=delta model=2 kv=13.8 kw = 5189.372474840354 pf=0.92 status=variable vmaxpu=1.5 vminpu=0.93 daily="5_DO" 
New "Load.MT_8266_M2" bus1="82661.1.2.3.4" phases=3 conn=delta model=3 kv=13.8 kw = 5189.372474840354 pf=0.92 status=variable vmaxpu=1.5 vminpu=0.93 daily="5_DO"
 
New "Load.MT_8092_M1" bus1="80921.1.2.3.4" phases=3 conn=delta model=2 kv=13.8 kw = 909.6939729302447 pf=0.92 status=variable vmaxpu=1.5 vminpu=0.93 daily="6_DO" 
New "Load.MT_8092_M2" bus1="80921.1.2.3.4" phases=3 conn=delta model=3 kv=13.8 kw = 909.6939729302447 pf=0.92 status=variable vmaxpu=1.5 vminpu=0.93 daily="6_DO"
 
New "Load.MT_7769_M1" bus1="77691.1.2.3.4" phases=3 conn=delta model=2 kv=13.8 kw = 472.9663995364651 pf=0.92 status=variable vmaxpu=1.5 vminpu=0.93 daily="1_DO" 
New "Load.MT_7769_M2" bus1="77691.1.2.3.4" phases=3 conn=delta model=3 kv=13.8 kw = 472.9663995364651 pf=0.92 status=variable vmaxpu=1.5 vminpu=0.93 daily="1_DO"
 
New "Load.MT_7632_M1" bus1="76321.1.2.3.4" phases=3 conn=delta model=2 kv=13.8 kw = 18462.652677879738 pf=0.92 status=variable vmaxpu=1.5 vminpu=0.93 daily="6_DO" 
New "Load.MT_7632_M2" bus1="76321.1.2.3.4" phases=3 conn=delta model=3 kv=13.8 kw = 18462.652677879738 pf=0.92 status=variable vmaxpu=1.5 vminpu=0.93 daily="6_DO"
 
New "Load.MT_7595_M1" bus1="75951.1.2.3.4" phases=3 conn=delta model=2 kv=13.8 kw = 4547.033440572602 pf=0.92 status=variable vmaxpu=1.5 vminpu=0.93 daily="3_DO" 
New "Load.MT_7595_M2" bus1="75951.1.2.3.4" phases=3 conn=delta model=3 kv=13.8 kw = 4547.033440572602 pf=0.92 status=variable vmaxpu=1.5 vminpu=0.93 daily="3_DO"
 
New "Load.MT_7322_M1" bus1="73221.1.2.3.4" phases=3 conn=delta model=2 kv=13.8 kw = 1971.8137255801967 pf=0.92 status=variable vmaxpu=1.5 vminpu=0.93 daily="1_DO" 
New "Load.MT_7322_M2" bus1="73221.1.2.3.4" phases=3 conn=delta model=3 kv=13.8 kw = 1971.8137255801967 pf=0.92 status=variable vmaxpu=1.5 vminpu=0.93 daily="1_DO"
 
New "Load.MT_6803_M1" bus1="68031.1.2.3.4" phases=3 conn=delta model=2 kv=13.8 kw = 6448.18860850273 pf=0.92 status=variable vmaxpu=1.5 vminpu=0.93 daily="1_DO" 
New "Load.MT_6803_M2" bus1="68031.1.2.3.4" phases=3 conn=delta model=3 kv=13.8 kw = 6448.18860850273 pf=0.92 status=variable vmaxpu=1.5 vminpu=0.93 daily="1_DO"
 
New "Load.MT_7250_M1" bus1="72501.1.2.3.4" phases=3 conn=delta model=2 kv=13.8 kw = 30.97089621330152 pf=0.92 status=variable vmaxpu=1.5 vminpu=0.93 daily="1_DO" 
New "Load.MT_7250_M2" bus1="72501.1.2.3.4" phases=3 conn=delta model=3 kv=13.8 kw = 30.97089621330152 pf=0.92 status=variable vmaxpu=1.5 vminpu=0.93 daily="1_DO"
 
New "Load.MT_126_M1" bus1="1261.1.2.3.4" phases=3 conn=delta model=2 kv=13.8 kw = 2401024.8555410667 pf=0.92 status=variable vmaxpu=1.5 vminpu=0.93 daily="3_DO" 
New "Load.MT_126_M2" bus1="1261.1.2.3.4" phases=3 conn=delta model=3 kv=13.8 kw = 2401024.8555410667 pf=0.92 status=variable vmaxpu=1.5 vminpu=0.93 daily="3_DO"
 
New "Load.MT_1236_M1" bus1="12361.1.2.3.4" phases=3 conn=delta model=2 kv=13.8 kw = 300463.71490386 pf=0.92 status=variable vmaxpu=1.5 vminpu=0.93 daily="3_DO" 
New "Load.MT_1236_M2" bus1="12361.1.2.3.4" phases=3 conn=delta model=3 kv=13.8 kw = 300463.71490386 pf=0.92 status=variable vmaxpu=1.5 vminpu=0.93 daily="3_DO"
 
New "Load.MT_1705_M1" bus1="17051.1.2.3.4" phases=3 conn=delta model=2 kv=13.8 kw = 25401.330451722308 pf=0.92 status=variable vmaxpu=1.5 vminpu=0.93 daily="7_DO" 
New "Load.MT_1705_M2" bus1="17051.1.2.3.4" phases=3 conn=delta model=3 kv=13.8 kw = 25401.330451722308 pf=0.92 status=variable vmaxpu=1.5 vminpu=0.93 daily="7_DO"
 
New "Load.MT_461_M1" bus1="4611.1.2.3.4" phases=3 conn=delta model=2 kv=13.8 kw = 624.9398670017353 pf=0.92 status=variable vmaxpu=1.5 vminpu=0.93 daily="1_DO" 
New "Load.MT_461_M2" bus1="4611.1.2.3.4" phases=3 conn=delta model=3 kv=13.8 kw = 624.9398670017353 pf=0.92 status=variable vmaxpu=1.5 vminpu=0.93 daily="1_DO"
 
New "Load.MT_427_M1" bus1="4271.1.2.3.4" phases=3 conn=delta model=2 kv=13.8 kw = 660.4723680836627 pf=0.92 status=variable vmaxpu=1.5 vminpu=0.93 daily="1_DO" 
New "Load.MT_427_M2" bus1="4271.1.2.3.4" phases=3 conn=delta model=3 kv=13.8 kw = 660.4723680836627 pf=0.92 status=variable vmaxpu=1.5 vminpu=0.93 daily="1_DO"
 
